LTspice 24.1.10 for Windows
Circuit: D:\Arquivos\Desenvolvimento_HW\Project_0\LTspice\Filtro_sallen_key.net
Start Time: Thu Oct  2 20:59:56 2025
solver = Normal
Maximum thread count: 12
tnom = 27
temp = 27
method = trap
Direct Newton iteration failed to find .op point.  (Use ".option noopiter" to skip.)
Starting Gmin stepping
Gmin = 10
Gmin = 1.07374
Gmin = 0.115292
Gmin = 0.0123794
Gmin = 0.00132923
Gmin = 0.000142725
vernier = 0.5
Gmin = 2.66058e-05
vernier = 0.666667
Gmin = 6.58697e-06
vernier = 0.888888
vernier = 1
Gmin = 8.09366e-07
Gmin = 8.6905e-08
Gmin = 9.33136e-09
Gmin = 1.00195e-09
Gmin = 1.07583e-10
Gmin = 1.15517e-11
Gmin = 1.24035e-12
Gmin = 1.33182e-13
Gmin = 0
Gmin stepping succeeded in finding the operating point.

Total elapsed time: 2.280 seconds.

Files loaded:
D:\Arquivos\Desenvolvimento_HW\Project_0\LTspice\Filtro_sallen_key.net
C:\Users\carlo\AppData\Local\LTspice\lib\sub\LTC2057.sub
C:\Users\carlo\AppData\Local\LTspice\lib\sub\UniversalOpAmp1.lib

