LTspice 24.1.10 for Windows
Circuit: D:\Arquivos\Desenvolvimento_HW\Project_0\LTspice\Final.net
Start Time: Mon Oct 13 19:38:36 2025
solver = Normal
Maximum thread count: 12
tnom = 27
temp = 27
method = trap
Direct Newton iteration failed to find .op point.  (Use ".option noopiter" to skip.)
Starting Gmin stepping
Gmin = 10
Gmin = 1.07374
Gmin = 0.115292
Gmin = 0.0123794
Gmin = 0.00132923
Gmin = 0.000142725
vernier = 0.5
vernier = 0.25
Gmin = 4.4017e-05
vernier = 0.333333
Gmin = 2.13664e-05
vernier = 0.444444
vernier = 0.592592
Gmin = 6.53425e-06
vernier = 0.790123
vernier = 1
Gmin = 1.07562e-06
vernier = 0.5
vernier = 0.25
vernier = 0.125
Gmin = 3.5246e-07
vernier = 0.0625
vernier = 0.03125
vernier = 0.015625
vernier = 0.0208333
Gmin = 3.42083e-07
vernier = 0.0277778
Gmin = 3.21421e-07
vernier = 0.037037
vernier = 0.0493827
Gmin = 2.89563e-07
vernier = 0.0658435
vernier = 0.0877914
Gmin = 2.45292e-07
vernier = 0.117055
Gmin = 1.89151e-07
vernier = 0.156073
vernier = 0.208098
Gmin = 1.22734e-07
vernier = 0.277464
vernier = 0.369952
Gmin = 6.21331e-08
vernier = 0.493269
Gmin = 2.17091e-08
vernier = 0.657691
vernier = 0.876922
Gmin = 3.94125e-09
vernier = 1
Gmin = 4.44818e-10
Gmin = 4.7762e-11
Gmin = 5.12841e-12
Gmin = 5.50658e-13
Gmin = 0
Gmin stepping succeeded in finding the operating point.

Total elapsed time: 3.588 seconds.

Files loaded:
D:\Arquivos\Desenvolvimento_HW\Project_0\LTspice\Final.net
C:\Users\carlo\AppData\Local\LTspice\lib\sub\ADI.lib
C:\Users\carlo\AppData\Local\LTspice\lib\sub\LTC2057.sub

