LTspice 24.1.10 for Windows
Circuit: D:\Arquivos\Desenvolvimento_HW\Project_0\LTspice\Amplificador_Instrumentacao.net
Start Time: Tue Sep 23 21:34:14 2025
solver = Normal
Maximum thread count: 12
tnom = 27
temp = 27
method = trap
Direct Newton iteration for .op point succeeded.
Total elapsed time: 0.059 seconds.

Files loaded:
D:\Arquivos\Desenvolvimento_HW\Project_0\LTspice\Amplificador_Instrumentacao.net
C:\Users\carlo\AppData\Local\LTspice\lib\sub\UniversalOpAmp1.lib

