LTspice 24.1.10 for Windows
Circuit: D:\Arquivos\Desenvolvimento_HW\Project_0\LTspice\Draft1.net
Start Time: Thu Oct  2 20:19:15 2025
solver = Normal
Maximum thread count: 12
tnom = 27
temp = 27
method = trap
Direct Newton iteration failed to find .op point.  (Use ".option noopiter" to skip.)
Starting Gmin stepping
Gmin = 10
Gmin = 1.07374
Gmin = 0.115292
Gmin = 0.0123794
Gmin = 0.00132923
Gmin = 0.000142725
vernier = 0.5
vernier = 0.25
Gmin = 4.4017e-05
vernier = 0.125
vernier = 0.166667
Gmin = 3.40576e-05
vernier = 0.222222
vernier = 0.296296
Gmin = 1.96699e-05
vernier = 0.395061
Gmin = 8.39915e-06
vernier = 0.526748
vernier = 0.702331
Gmin = 2.09346e-06
vernier = 0.936441
vernier = 1
Gmin = 2.74419e-07
vernier = 0.5
vernier = 0.25
vernier = 0.125
vernier = 0.0625
vernier = 0.03125
vernier = 0.015625
vernier = 0.0078125
vernier = 0.00390625
vernier = 0.00195312
Gmin = 3.42856e-07
vernier = 0.00260417
Gmin = 3.40854e-07
vernier = 0.00347222
vernier = 0.00462963
Gmin = 3.37519e-07
vernier = 0.00617283
vernier = 0.00823044
Gmin = 3.32269e-07
vernier = 0.0109739
Gmin = 3.24175e-07
vernier = 0.0146319
vernier = 0.0195092
Gmin = 3.11038e-07
vernier = 0.00975459
vernier = 0.0130061
Gmin = 3.04788e-07
vernier = 0.0173415
vernier = 0.023122
Gmin = 2.91675e-07
vernier = 0.0308293
Gmin = 2.72195e-07
vernier = 0.0411057
vernier = 0.0548076
Gmin = 2.42436e-07
vernier = 0.0730768
vernier = 0.0974357
Gmin = 2.01696e-07
vernier = 0.129914
Gmin = 1.51218e-07
vernier = 0.173219
vernier = 0.230959
Gmin = 9.36742e-08
vernier = 0.307945
vernier = 0.410593
Gmin = 4.41294e-08
vernier = 0.547457
Gmin = 1.3827e-08
vernier = 0.729942
vernier = 0.973256
Gmin = 2.11656e-09
vernier = 1
Gmin = 2.29715e-10
Gmin = 2.46654e-11
vernier = 0.5
vernier = 0.25
vernier = 0.125
vernier = 0.0625
vernier = 0.03125
vernier = 0.015625
vernier = 0.0078125
Gmin = 1.57859e-11
vernier = 0.00390625
vernier = 0.00195312
vernier = 0.000976562
vernier = 0.000488281
Gmin = 0
Gmin stepping failed

Starting source stepping with srcstepmethod=0
Source Step = 3.0303%
vernier = 0.25
Source Step = 1.70455%
Source Step = 3.59848%
Source Step = 5.49242%
Source Step = 7.38636%
Source Step = 9.2803%
vernier = 0.09375
Source Step = 11.9318%
Source Step = 14.7727%
Source Step = 17.6136%
Source Step = 20.4545%
Source Step = 23.2955%
vernier = 0.140625
Source Step = 27.1307%
Source Step = 31.392%
Source Step = 35.6534%
Source Step = 39.9148%
Source Step = 44.1761%
vernier = 0.210938
Source Step = 47.8382%
vernier = 0.0032959
Source Step = 47.8982%
Source Step = 47.998%
Source Step = 48.0979%
Source Step = 48.1978%
Source Step = 48.2977%
vernier = 0.00494385
Source Step = 48.4225%
Source Step = 48.5723%
Source Step = 48.7221%
Source Step = 48.872%
Source Step = 49.0218%
vernier = 0.00741577
Source Step = 49.2015%
Source Step = 49.4263%
Source Step = 49.651%
Source Step = 49.8757%
Source Step = 50.1004%
vernier = 0.0111237
Source Step = 50.3589%
Source Step = 50.6959%
Source Step = 51.033%
Source Step = 51.3701%
Source Step = 51.7072%
vernier = 0.0166855
Source Step = 52.078%
Source Step = 52.5836%
Source Step = 53.0892%
Source Step = 53.5948%
Source Step = 54.1005%
vernier = 0.0250282
Source Step = 54.6314%
Source Step = 55.3898%
Source Step = 56.1482%
Source Step = 56.9066%
Source Step = 57.6651%
Source Step = 58.4235%
vernier = 0.0375423
Source Step = 59.5612%
Source Step = 60.6988%
Source Step = 61.8365%
Source Step = 62.9741%
Source Step = 64.1117%
vernier = 0.0563135
Source Step = 65.7613%
Source Step = 67.4678%
Source Step = 69.1743%
Source Step = 70.8807%
Source Step = 72.5872%
vernier = 0.0844703
Source Step = 74.9763%
Source Step = 77.536%
Source Step = 80.0957%
Source Step = 82.6554%
Source Step = 85.2151%
vernier = 0.126705
Source Step = 88.6707%
Source Step = 90.6025%
Source Step = 90.6625%
Source Step = 90.7225%
Source Step = 90.7825%
Source Step = 90.8424%
Source Step = 90.9024%
Source Step = 90.9624%
Source Step = 91.0224%
Source Step = 91.0824%
Source Step = 91.1424%
Source Step = 91.2024%
Source Step = 91.2624%
Source Step = 91.3224%
Source Step = 91.3824%
Source Step = 91.4424%
Source Step = 91.5024%
Source Step = 91.5624%
Source Step = 91.6224%
Source Step = 91.6823%
Source Step = 91.7423%
Source Step = 91.8023%
Source Step = 91.8623%
Source Step = 91.9223%
Source Step = 91.9823%
Source Step = 92.0423%
Source Step = 92.1023%
Source Step = 92.1623%
Source Step = 92.2223%
Source Step = 92.2823%
Source Step = 92.3423%
Source Step = 92.4023%
Source Step = 92.4623%
Source Step = 92.5223%
Source Step = 92.5822%
Source Step = 92.6422%
Source Step = 92.7022%
Source Step = 92.7622%
Source Step = 92.8222%
Source Step = 92.8822%
Source Step = 92.9422%
Source Step = 93.0022%
Source Step = 93.0622%
Source Step = 93.1222%
Source Step = 93.1822%
Source Step = 93.2422%
Source Step = 93.3022%
Source Step = 93.3622%
Source Step = 93.4221%
Source Step = 93.4821%
Source Step = 93.5421%
Source Step = 93.6021%
Source Step = 93.6621%
Source Step = 93.7221%
Source Step = 93.7821%
Source Step = 93.8421%
Source Step = 93.9021%
Source Step = 93.9621%
Source Step = 94.0221%
Source Step = 94.0821%
Source Step = 94.1421%
Source Step = 94.2021%
Source Step = 94.262%
Source Step = 94.322%
Source Step = 94.382%
Source Step = 94.442%
Source Step = 94.502%
Source Step = 94.562%
Source Step = 94.622%
Source Step = 94.682%
Source Step = 94.742%
Source Step = 94.802%
Source Step = 94.862%
Source Step = 94.922%
Source Step = 94.982%
Source Step = 95.042%
Source Step = 95.102%
Source Step = 95.1619%
Source Step = 95.2219%
Source Step = 95.2819%
Source Step = 95.3419%
Source Step = 95.4019%
Source Step = 95.4619%
Source Step = 95.5219%
Source Step = 95.5819%
Source Step = 95.6419%
Source Step = 95.7019%
Source Step = 95.7619%
Source Step = 95.8219%
Source Step = 95.8819%
Source Step = 95.9419%
Source Step = 96.0018%
Source Step = 96.0618%
Source Step = 96.1218%
Source Step = 96.1818%
Source Step = 96.2418%
Source Step = 96.3018%
Source Step = 96.3618%
Source Step = 96.4218%
Source Step = 96.4818%
Source Step = 96.5418%
Source Step = 96.6018%
Source Step = 96.6618%
Source Step = 96.7218%
Source Step = 96.7818%
Source Step = 96.8418%
Source Step = 96.9017%
Source Step = 96.9617%
Source Step = 97.0217%
Source Step = 97.0817%
Source Step = 97.1417%
Source Step = 97.2017%
Source Step = 97.2617%
Source Step = 97.3217%
Source Step = 97.3817%
Source Step = 97.4417%
Source Step = 97.5017%
Source Step = 97.5617%
Source Step = 97.6217%
Source Step = 97.6817%
Source Step = 97.7416%
Source Step = 97.8016%
Source Step = 97.8616%
Source Step = 97.9216%
Source Step = 97.9816%
Source Step = 98.0416%
Source Step = 98.1016%
Source Step = 98.1616%
Source Step = 98.2216%
Source Step = 98.2816%
Source Step = 98.3416%
Source Step = 98.4016%
Source Step = 98.4616%
Source Step = 98.5216%
Source Step = 98.5816%
Source Step = 98.6415%
Source Step = 98.7015%
Source Step = 98.7615%
Source Step = 98.8215%
Source Step = 98.8815%
Source Step = 98.9415%
Source Step = 99.0015%
Source Step = 99.0615%
Source Step = 99.1215%
Source Step = 99.1815%
Source Step = 99.2415%
Source Step = 99.3015%
Source Step = 99.3615%
Source Step = 99.4215%
Source Step = 99.4814%
Source Step = 99.5414%
Source Step = 99.6014%
Source Step = 99.6614%
Source Step = 99.7214%
Source Step = 99.7814%
Source Step = 99.8414%
Source Step = 99.9014%
Source Step = 99.9614%
Source Step = 100%
Source Step = 100%
Source Step = 100%
Source Step = 100%
Source Step = 100%
Source Step = 100%
Source Step = 100%
Source Step = 100%
Source Step = 100%
Source Step = 100%
Source Step = 100%
Source Step = 100%
Source Step = 100%
Source Step = 100%
Source Step = 100%
Source Step = 100%
Source Step = 100%
Source Step = 100%
Source Step = 100%
Source Step = 100%
Source Step = 100%
Source Step = 100%
Source Step = 100%
Source Step = 100%
Source Step = 100%
Source Step = 100%
Source Step = 100%
Source Step = 100%
Source Step = 100%
Source Step = 100%
Source Step = 100%
Source Step = 100%
Source Step = 100%
Source Step = 100%
Source Step = 100%
Source Step = 100%
Source Step = 100%
Source Step = 100%
Source Step = 100%
Source Step = 100%
Source Step = 100%
Source Step = 100%
Source Step = 100%
Source Step = 100%
Source Step = 100%
Source Step = 100%
Source Step = 100%
Source Step = 100%
Source Step = 100%
Source Step = 100%
Source Step = 100%
Source Step = 100%
Source Step = 100%
Source Step = 100%
Source Step = 100%
Source Step = 100%
Source Step = 100%
Source Step = 100%
Source Step = 100%
Source Step = 100%
Source Step = 100%
Source Step = 100%
Source Step = 100%
Source Step = 100%
Source Step = 100%
Source Step = 100%
Source Step = 100%
Source Step = 100%
Source Step = 100%
Source Step = 100%
Source Step = 100%
Source Step = 100%
Source Step = 100%
Source Step = 100%
Source Step = 100%
Source Step = 100%
Source Step = 100%
Source Step = 100%
Source Step = 100%
Source Step = 100%
Source Step = 100%
Source Step = 100%
Source Step = 100%
Source Step = 100%
Source Step = 100%
Source Step = 100%
Source Step = 100%
Source Step = 100%
Source Step = 100%
Source Step = 100%
Source Step = 100%
Source Step = 100%
Source Step = 100%
Source Step = 100%
Source Step = 100%
Source Step = 100%
Source Step = 100%
Source Step = 100%
Source Step = 100%
Source Step = 100%
Source Step = 100%
Source Step = 100%
Source Step = 100%
Source Step = 100%
Source Step = 100%
Source Step = 100%
Source Step = 100%
Source Step = 100%
Source Step = 100%
Source Step = 100%
Source Step = 100%
Source Step = 100%
Source Step = 100%
Source Step = 100%
Source Step = 100%
Source Step = 100%
Source Step = 100%
Source Step = 100%
Source Step = 100%
Source Step = 100%
Source Step = 100%
Source Step = 100%
Source Step = 100%
Source Step = 100%
Source Step = 100%
Source Step = 100%
Source Step = 100%
Source Step = 100%
Source Step = 100%
Source Step = 100%
Source Step = 100%
Source Step = 100%
Source Step = 100%
Source Step = 100%
Source Step = 100%
Source Step = 100%
Source Step = 100%
Source Step = 100%
Source Step = 100%
Source Step = 100%
Source Step = 100%
Source Step = 100%
Source Step = 100%
Source Step = 100%
Source Step = 100%
Source Step = 100%
Source Step = 100%
Source Step = 100%
Source Step = 100%
Source Step = 100%
Source Step = 100%
Source Step = 100%
Source Step = 100%
Source Step = 100%
Source Step = 100%
Source Step = 100%
Source Step = 100%
Source Step = 100%
Source Step = 100%
Source Step = 100%
Source Step = 100%
Source Step = 100%
Source Step = 100%
Source Step = 100%
Source Step = 100%
Source Step = 100%
Source Step = 100%
Source Step = 100%
Source Step = 100%
Source Step = 100%
Source Step = 100%
Source Step = 100%
Source Step = 100%
Source Step = 100%
Source Step = 100%
Source Step = 100%
Source Step = 100%
Source Step = 100%
Source Step = 100%
Source Step = 100%
Source Step = 100%
Source Step = 100%
Source Step = 100%
Source Step = 100%
Source Step = 100%
Source Step = 100%
Source Step = 100%
Source Step = 100%
Source Step = 100%
Source Step = 100%
Source Step = 100%
Source Step = 100%
Source Step = 100%
Source Step = 100%
Source Step = 100%
Source Step = 100%
Source Step = 100%
Source Step = 100%
Source Step = 100%
Source Step = 100%
Source Step = 100%
Source Step = 100%
Source Step = 100%
Source Step = 100%
Source Step = 100%
Source Step = 100%
Source Step = 100%
Source Step = 100%
Source Step = 100%
Source Step = 100%
Source Step = 100%
Source Step = 100%
Source Step = 100%
Source Step = 100%
Source Step = 100%
Source Step = 100%
Source Step = 100%
Source Step = 100%
Source Step = 100%
Source Step = 100%
Source Step = 100%
Source Step = 100%
Source Step = 100%
Source Step = 100%
Source Step = 100%
Source Step = 100%
Source Step = 100%
Source Step = 100%
Source Step = 100%
Source Step = 100%
Source Step = 100%
Source Step = 100%
Source Step = 100%
Source Step = 100%
Source Step = 100%
Source Step = 100%
Source Step = 100%
Source Step = 100%
Source Step = 100%
Source Step = 100%
Source Step = 100%
Source Step = 100%
Source Step = 100%
Source Step = 100%
Source Step = 100%
Source Step = 100%
Source Step = 100%
Source Step = 100%
Source Step = 100%
Source Step = 100%
Source Step = 100%
Source Step = 100%
Source Step = 100%
Source Step = 100%
Source Step = 100%
Source Step = 100%
Source Step = 100%
Source Step = 100%
Source Step = 100%
Source Step = 100%
Source Step = 100%
Source Step = 100%
Source Step = 100%
Source Step = 100%
Source Step = 100%
Source Step = 100%
Source Step = 100%
Source Step = 100%
Source Step = 100%
Source Step = 100%
Source Step = 100%
Source Step = 100%
Source Step = 100%
Source Step = 100%
Source Step = 100%
Source Step = 100%
Source Step = 100%
Source Step = 100%
Source Step = 100%
Source Step = 100%
Source Step = 100%
Source Step = 100%
Source Step = 100%
Source Step = 100%
Source Step = 100%
Source Step = 100%
Source Step = 100%
Source Step = 100%
Source Step = 100%
Source Step = 100%
Source Step = 100%
Source Step = 100%
Source Step = 100%
Source Step = 100%
Source Step = 100%
Source Step = 100%
Source Step = 100%
Source Step = 100%
Source Step = 100%
Source Step = 100%
Source Step = 100%
Source Step = 100%
Source Step = 100%
Source Step = 100%
Source Step = 100%
Source Step = 100%
Source Step = 100%
Source Step = 100%
Source Step = 100%
Source Step = 100%
Source Step = 100%
Source Step = 100%
Source Step = 100%
Source Step = 100%
Source Step = 100%
Source Step = 100%
Source Step = 100%
Source Step = 100%
Source Step = 100%
Source Step = 100%
Source Step = 100%
Source Step = 100%
Source Step = 100%
Source Step = 100%
Source Step = 100%
Source Step = 100%
Source Step = 100%
Source Step = 100%
Source Step = 100%
Source Step = 100%
Source Step = 100%
Source Step = 100%
Source Step = 100%
Source Step = 100%
Source Step = 100%
Source Step = 100%
Source Step = 100%
Source Step = 100%
Source Step = 100%
Source Step = 100%
Source Step = 100%
Source Step = 100%
Source Step = 100%
Source Step = 100%
Source Step = 100%
Source Step = 100%
Source Step = 100%
Source stepping aborted.
Starting source stepping with srcstepmethod=1
Source Step = 3.0303%
Source Step = 33.3333%
Source Step = 63.6364%
Source Step = 93.9394%
Source Step = 99.0089%
Source Step = 99.0385%
Source Step = 99.0681%
Source Step = 99.0977%
Source Step = 99.1272%
Source Step = 99.1568%
vernier = 0.00146484
Source Step = 99.1998%
Source Step = 99.2441%
Source Step = 99.2885%
Source Step = 99.3329%
Source Step = 99.3773%
vernier = 0.00219727
Source Step = 99.4395%
Source Step = 99.506%
Source Step = 99.5726%
Source Step = 99.6392%
Source Step = 99.7058%
vernier = 0.0032959
Source Step = 99.7957%
Source Step = 99.8956%
Source Step = 99.9954%
Source Step = 100%
Source Step = 100%
Source Step = 100%
Source Step = 100%
Source Step = 100%
Source Step = 100%
Source Step = 100%
Source Step = 100%
Source Step = 100%
Source Step = 100%
Source Step = 100%
Source Step = 100%
Source Step = 100%
Source Step = 100%
Source Step = 100%
Source Step = 100%
Source Step = 100%
Source Step = 100%
Source Step = 100%
Source Step = 100%
Source Step = 100%
Source Step = 100%
Source Step = 100%
Source Step = 100%
Source Step = 100%
Source Step = 100%
Source Step = 100%
Source stepping aborted.
Pseudo Transient failed in finding the operating point at 5 µs.
Trouble finding operating point....skipping operating point for Transient analysis.
Changing Tseed to 1e-08
Changing Tseed to 1e-10
Changing Tseed to 1e-07
Changing Tseed to 1e-11
Changing Tseed to 1e-06
Changing Tseed to 1e-12
Changing Tseed to 1e-05
Changing Tseed to 1e-13
Changing Tseed to 0.0001
Changing Tseed to 1e-14
Changing Tseed to 0.001
Changing Tseed to 1e-15

Convergence Failure:  Time step too small; initial timepoint: trouble with instance "u4"

Simulation Failed: Iteration limit reached

Total elapsed time: 13.701 seconds.

Files loaded:
D:\Arquivos\Desenvolvimento_HW\Project_0\LTspice\Draft1.net
C:\Users\carlo\AppData\Local\LTspice\lib\sub\ADI.lib
C:\Users\carlo\AppData\Local\LTspice\lib\sub\LTC2057.sub

