LTspice 24.1.10 for Windows
Circuit: D:\Arquivos\Desenvolvimento_HW\Projetos\Project_1\LTspice\Buck_Ideal.net
Start Time: Thu Oct 23 19:39:36 2025
solver = Normal
Maximum thread count: 12
tnom = 27
temp = 27
method = trap
Direct Newton iteration for .op point succeeded.
Total elapsed time: 0.375 seconds.

Files loaded:
D:\Arquivos\Desenvolvimento_HW\Projetos\Project_1\LTspice\Buck_Ideal.net
C:\Users\carlo\AppData\Local\LTspice\lib\cmp\standard.dio

